/*--------------------------------*- C++ -*----------------------------------*\
| =========                 |                                                 |
| \\      /  F ield         | OpenFOAM: The Open Source CFD Toolbox           |
|  \\    /   O peration     | Version:  1.7.1                                 |
|   \\  /    A nd           | Web:      www.OpenFOAM.com                      |
|    \\/     M anipulation  |                                                 |
\*---------------------------------------------------------------------------*/
FoamFile
{
    version     2.0;
    format      ascii;
    class       dictionary;
    object      extrudeMeshDict;
}
// * * * * * * * * * * * * * * * * * * * * * * * * * * * * * * * * * * * * * //

// What to extrude:
//      patch   : from patch of another case ('sourceCase')

constructFrom patch;
sourceCase ".";
sourcePatches (empty1);

// If construct from patch: patch to use for back (can be same as sourcePatch)
exposedPatchName empty1;

// Flip surface normals before usage.
flipNormals false;

//- Linear extrusion in point-normal direction
extrudeModel        linearNormal;

nLayers             1;

expansionRatio      1.0;

linearNormalCoeffs
{
    thickness       0.02;
}

// Do front and back need to be merged? Usually only makes sense for 360
// degree wedges.
mergeFaces false;


// * * * * * * * * * * * * * * * * * * * * * * * * * * * * * * * * * * * * * //
