/*--------------------------------*- C++ -*----------------------------------*\
| =========                 |                                                 |
| \\      /  F ield         | OpenFOAM: The Open Source CFD Toolbox           |
|  \\    /   O peration     | Version:  5                                     |
|   \\  /    A nd           | Web:      www.OpenFOAM.org                      |
|    \\/     M anipulation  |                                                 |
\*---------------------------------------------------------------------------*/
FoamFile
{
    version     2.0;
    format      ascii;
    class       dictionary;
    location    "system";
    object      setFieldsDict;
}
// * * * * * * * * * * * * * * * * * * * * * * * * * * * * * * * * * * * * * //

defaultFieldValues
(
    volScalarFieldValue alpha.air 1
    volScalarFieldValue alpha.water 0
    volScalarFieldValue alpha.oil 0
);

regions
(
    boxToCell
    {
        box (-10 -1 -1) (30 1 0.4);
        fieldValues
        (
            volScalarFieldValue alpha.water 1
            volScalarFieldValue alpha.oil 0
            volScalarFieldValue alpha.air 0
        );
    }
    boxToCell
    {
        box (2 -1 0.4) (4 1 0.5);
        fieldValues
        (
            volScalarFieldValue alpha.water 0
            volScalarFieldValue alpha.oil 1
            volScalarFieldValue alpha.air 0
        );
    }
);


// ************************************************************************* //
