/*--------------------------------*- C++ -*----------------------------------*\
| =========                 |                                                 |
| \\      /  F ield         | OpenFOAM: The Open Source CFD Toolbox           |
|  \\    /   O peration     | Version:  1.7.1                                 |
|   \\  /    A nd           | Web:      www.OpenFOAM.com                      |
|    \\/     M anipulation  |                                                 |
\*---------------------------------------------------------------------------*/
FoamFile
{
    version     2.0;
    format      ascii;
    class       volScalarField;
    location    "0";
    object      k;
}
// * * * * * * * * * * * * * * * * * * * * * * * * * * * * * * * * * * * * * //

dimensions      [0 2 -2 0 0 0 0];

internalField   uniform 0.00000001;

boundaryField
{
    inlet
    {
        type            inletOutlet;
        inletValue	    uniform 0.00000001;
        value           uniform 0.00000001;
    }
    outlet
    {
        type            inletOutlet;
        inletValue	    uniform 0.00000001;
        value           uniform 0.00000001;
    }
    atmosphere
    {
        type            inletOutlet;
        inletValue	    uniform 0.00000001;
        value           uniform 0.00000001;
    }
    frontAndBack
    {
        type            empty;
    }
    bottom
    {
        type            kqRWallFunction;
        value           uniform 0.00000001;
    }
}


// ************************************************************************* //
